REMARK  Name = ZINC000000895081
REMARK  6 active torsions:
REMARK  status: ('A' for Active; 'I' for Inactive)
REMARK    1  A    between atoms: C2_2  and  C4_4
REMARK    2  A    between atoms: C4_4  and  C5_5
REMARK    3  A    between atoms: C5_5  and  O6_6
REMARK    4  A    between atoms: C5_5  and  C7_7
REMARK    5  A    between atoms: C5_5  and  C11_11
REMARK    6  A    between atoms: C7_7  and  C8_8
REMARK                            x       y       z     vdW  Elec       q    Type
REMARK                         _______ _______ _______ _____ _____    ______ ____
ROOT
ATOM      1  C5  ZIN A   1      -2.479   0.941   0.019  0.00  0.00    +0.100 C 
ENDROOT
BRANCH   1   2
ATOM      2  C11 ZIN A   1      -2.324   0.003  -1.151  0.00  0.00    +0.570 C 
ATOM      3  O12 ZIN A   1      -2.204  -1.195  -0.960  0.00  0.00    -0.670 OA
ATOM      4  O13 ZIN A   1      -2.318   0.443  -2.288  0.00  0.00    -0.760 OA
ENDBRANCH   1   2
BRANCH   1   5
ATOM      5  O6  ZIN A   1      -2.455   0.192   1.236  0.00  0.00    -0.500 OA
ATOM      6  H16 ZIN A   1      -2.550   0.732   2.032  0.00  0.00    +0.300 HD
ENDBRANCH   1   5
BRANCH   1   7
ATOM      7  C4  ZIN A   1      -1.330   1.951   0.019  0.00  0.00    -0.110 C 
BRANCH   7   9
ATOM      8  O1  ZIN A   1       0.002  -0.004   0.002  0.00  0.00    -0.640 OA
ATOM      9  C2  ZIN A   1      -0.015   1.215   0.009  0.00  0.00    +0.490 C 
ATOM     10  O3  ZIN A   1       1.033   1.839   0.002  0.00  0.00    -0.760 OA
ENDBRANCH   7   9
ENDBRANCH   1   7
BRANCH   1  11
ATOM     11  C7  ZIN A   1      -3.811   1.684  -0.096  0.00  0.00    -0.110 C 
BRANCH  11  12
ATOM     12  C8  ZIN A   1      -4.943   0.690  -0.097  0.00  0.00    +0.490 C 
ATOM     13  O9  ZIN A   1      -4.706  -0.503  -0.012  0.00  0.00    -0.640 OA
ATOM     14  O10 ZIN A   1      -6.096   1.078  -0.181  0.00  0.00    -0.760 OA
ENDBRANCH  11  12
ENDBRANCH   1  11
TORSDOF 6
