@<TRIPOS>MOLECULE
*****
 39 41 0 0 0
SMALL
GASTEIGER

@<TRIPOS>ATOM
      1 N           3.7293    0.1902    1.3067 N.2     1  UNL1       -0.2801
      2 C           4.7446   -0.5424    1.5843 C.2     1  UNL1        0.1442
      3 N           5.0450   -0.9669    2.8314 N.pl3   1  UNL1       -0.3382
      4 S           5.8716   -1.0362    0.3609 S.3     1  UNL1       -0.0865
      5 C           5.0458   -0.4236   -1.1381 C.3     1  UNL1        0.0295
      6 C           5.7555   -0.8577   -2.3933 C.ar    1  UNL1        0.0057
      7 C           6.3608    0.0588   -3.2742 C.ar    1  UNL1       -0.0542
      8 C           6.9829   -0.3562   -4.4575 C.ar    1  UNL1       -0.0607
      9 C           7.0198   -1.7107   -4.8217 C.ar    1  UNL1       -0.0504
     10 C           6.4293   -2.6557   -3.9622 C.ar    1  UNL1        0.0282
     11 C           5.8322   -2.1968   -2.7942 C.ar    1  UNL1        0.1402
     12 O           5.3315   -3.2385   -2.0805 O.2     1  UNL1       -0.4542
     13 C           5.6106   -4.3762   -2.7649 C.ar    1  UNL1        0.1402
     14 C           5.2765   -5.6606   -2.3211 C.ar    1  UNL1        0.0057
     15 C           4.5910   -5.8937   -1.0060 C.3     1  UNL1        0.0295
     16 S           5.4190   -7.0456    0.1089 S.3     1  UNL1       -0.0865
     17 C           6.9657   -6.3311    0.4173 C.2     1  UNL1        0.1442
     18 N           7.1956   -5.0717    0.4798 N.2     1  UNL1       -0.2801
     19 N           7.9610   -7.2210    0.6270 N.pl3   1  UNL1       -0.3382
     20 C           5.5801   -6.6932   -3.2272 C.ar    1  UNL1       -0.0542
     21 C           6.2102   -6.4393   -4.4506 C.ar    1  UNL1       -0.0607
     22 C           6.5681   -5.1359   -4.8269 C.ar    1  UNL1       -0.0504
     23 C           6.2536   -4.0758   -3.9593 C.ar    1  UNL1        0.0282
     24 H           3.1950    0.3440    2.1645 H       1  UNL1        0.1886
     25 H           4.7284   -0.3863    3.5947 H       1  UNL1        0.1442
     26 H           6.0053   -1.2800    2.9320 H       1  UNL1        0.1442
     27 H           5.0030    0.6697   -1.0899 H       1  UNL1        0.0430
     28 H           4.0148   -0.7947   -1.1832 H       1  UNL1        0.0430
     29 H           6.3476    1.1215   -3.0357 H       1  UNL1        0.0622
     30 H           7.4449    0.3838   -5.1085 H       1  UNL1        0.0618
     31 H           7.5042   -2.0195   -5.7415 H       1  UNL1        0.0625
     32 H           3.5949   -6.3008   -1.2159 H       1  UNL1        0.0430
     33 H           4.4183   -4.9525   -0.4732 H       1  UNL1        0.0430
     34 H           6.3370   -4.5363    0.3241 H       1  UNL1        0.1886
     35 H           7.8298   -8.1246    0.1958 H       1  UNL1        0.1442
     36 H           8.8810   -6.8149    0.5143 H       1  UNL1        0.1442
     37 H           5.3181   -7.7202   -2.9769 H       1  UNL1        0.0622
     38 H           6.4276   -7.2678   -5.1223 H       1  UNL1        0.0618
     39 H           7.0635   -4.9540   -5.7756 H       1  UNL1        0.0625
@<TRIPOS>BOND
     1     1     2    2
     2     2     3    1
     3     2     4    1
     4     4     5    1
     5     5     6    1
     6     6     7   ar
     7     7     8   ar
     8     8     9   ar
     9     9    10   ar
    10    10    11   ar
    11     6    11   ar
    12    11    12   ar
    13    12    13   ar
    14    13    14   ar
    15    14    15    1
    16    15    16    1
    17    16    17    1
    18    17    18    2
    19    17    19    1
    20    14    20   ar
    21    20    21   ar
    22    21    22   ar
    23    22    23   ar
    24    13    23   ar
    25    10    23   ar
    26     1    24    1
    27     3    25    1
    28     3    26    1
    29     5    27    1
    30     5    28    1
    31     7    29    1
    32     8    30    1
    33     9    31    1
    34    15    32    1
    35    15    33    1
    36    18    34    1
    37    19    35    1
    38    19    36    1
    39    20    37    1
    40    21    38    1
    41    22    39    1
