REMARK  Name = *****
REMARK  6 active torsions:
REMARK  status: ('A' for Active; 'I' for Inactive)
REMARK    1  A    between atoms: C_2  and  S_4
REMARK    2  A    between atoms: S_4  and  C_5
REMARK    3  A    between atoms: C_5  and  C_6
REMARK    4  A    between atoms: C_14  and  C_15
REMARK    5  A    between atoms: C_15  and  S_16
REMARK    6  A    between atoms: S_16  and  C_17
REMARK                            x       y       z     vdW  Elec       q    Type
REMARK                         _______ _______ _______ _____ _____    ______ ____
ROOT
ATOM      1  C   UNL A   1       5.755  -0.858  -2.393  0.00  0.00    +0.006 A 
ATOM      2  C   UNL A   1       6.361   0.059  -3.274  0.00  0.00    +0.008 A 
ATOM      3  C   UNL A   1       6.983  -0.356  -4.457  0.00  0.00    +0.001 A 
ATOM      4  C   UNL A   1       7.020  -1.711  -4.822  0.00  0.00    +0.012 A 
ATOM      5  C   UNL A   1       6.429  -2.656  -3.962  0.00  0.00    +0.028 A 
ATOM      6  C   UNL A   1       5.832  -2.197  -2.794  0.00  0.00    +0.140 A 
ATOM      7  O   UNL A   1       5.332  -3.239  -2.080  0.00  0.00    -0.454 OA
ATOM      8  C   UNL A   1       5.611  -4.376  -2.765  0.00  0.00    +0.140 A 
ATOM      9  C   UNL A   1       5.277  -5.661  -2.321  0.00  0.00    +0.006 A 
ATOM     10  C   UNL A   1       5.580  -6.693  -3.227  0.00  0.00    +0.008 A 
ATOM     11  C   UNL A   1       6.210  -6.439  -4.451  0.00  0.00    +0.001 A 
ATOM     12  C   UNL A   1       6.568  -5.136  -4.827  0.00  0.00    +0.012 A 
ATOM     13  C   UNL A   1       6.254  -4.076  -3.959  0.00  0.00    +0.028 A 
ENDROOT
BRANCH   1  14
ATOM     14  C   UNL A   1       5.046  -0.424  -1.138  0.00  0.00    +0.115 C 
BRANCH  14  15
ATOM     15  S   UNL A   1       5.872  -1.036   0.361  0.00  0.00    -0.086 S 
BRANCH  15  17
ATOM     16  N   UNL A   1       3.729   0.190   1.307  0.00  0.00    -0.280 NA
ATOM     17  C   UNL A   1       4.745  -0.542   1.584  0.00  0.00    +0.144 C 
ATOM     18  N   UNL A   1       5.045  -0.967   2.831  0.00  0.00    -0.338 N 
ATOM     19  H   UNL A   1       3.195   0.344   2.164  0.00  0.00    +0.189 HD
ATOM     20  H   UNL A   1       4.728  -0.386   3.595  0.00  0.00    +0.144 HD
ATOM     21  H   UNL A   1       6.005  -1.280   2.932  0.00  0.00    +0.144 HD
ENDBRANCH  15  17
ENDBRANCH  14  15
ENDBRANCH   1  14
BRANCH   9  22
ATOM     22  C   UNL A   1       4.591  -5.894  -1.006  0.00  0.00    +0.115 C 
BRANCH  22  23
ATOM     23  S   UNL A   1       5.419  -7.046   0.109  0.00  0.00    -0.086 S 
BRANCH  23  24
ATOM     24  C   UNL A   1       6.966  -6.331   0.417  0.00  0.00    +0.144 C 
ATOM     25  N   UNL A   1       7.196  -5.072   0.480  0.00  0.00    -0.280 NA
ATOM     26  N   UNL A   1       7.961  -7.221   0.627  0.00  0.00    -0.338 N 
ATOM     27  H   UNL A   1       6.337  -4.536   0.324  0.00  0.00    +0.189 HD
ATOM     28  H   UNL A   1       7.830  -8.125   0.196  0.00  0.00    +0.144 HD
ATOM     29  H   UNL A   1       8.881  -6.815   0.514  0.00  0.00    +0.144 HD
ENDBRANCH  23  24
ENDBRANCH  22  23
ENDBRANCH   9  22
TORSDOF 6
