REMARK  Name = *****
REMARK  9 active torsions:
REMARK  status: ('A' for Active; 'I' for Inactive)
REMARK    1  A    between atoms: C_2  and  C_12
REMARK    2  A    between atoms: N_3  and  C_4
REMARK    3  A    between atoms: C_4  and  C_5
REMARK    4  A    between atoms: C_15  and  C_16
REMARK    5  A    between atoms: C_16  and  C_17
REMARK    6  A    between atoms: C_17  and  N_18
REMARK    7  A    between atoms: N_18  and  C_19
REMARK    8  A    between atoms: C_19  and  C_20
REMARK    9  A    between atoms: C_20  and  C_21
REMARK                            x       y       z     vdW  Elec       q    Type
REMARK                         _______ _______ _______ _____ _____    ______ ____
ROOT
ATOM      1  C   UNL A   1       2.342   0.879   2.528  0.00  0.00    +0.209 A 
ATOM      2  C   UNL A   1       3.079  -0.055   1.834  0.00  0.00    +0.166 A 
ATOM      3  N   UNL A   1       4.399   0.301   1.803  0.00  0.00    -0.221 NA
ATOM      4  C   UNL A   1       4.438   1.431   2.478  0.00  0.00    +0.198 A 
ATOM      5  O   UNL A   1       3.212   1.865   2.935  0.00  0.00    -0.435 OA
ENDROOT
BRANCH   1   7
ATOM      6  O   UNL A   1       0.199  -0.058   2.556  0.00  0.00    -0.267 OA
ATOM      7  C   UNL A   1       0.933   0.883   2.841  0.00  0.00    +0.281 C 
ATOM      8  N   UNL A   1       0.436   1.997   3.475  0.00  0.00    -0.303 N 
ATOM      9  H   UNL A   1       1.010   2.816   3.641  0.00  0.00    +0.149 HD
BRANCH   8  10
ATOM     10  C   UNL A   1      -0.983   2.079   3.777  0.00  0.00    +0.163 C 
BRANCH  10  11
ATOM     11  C   UNL A   1      -1.389   3.355   4.471  0.00  0.00    +0.093 A 
ATOM     12  N   UNL A   1      -0.429   4.282   4.756  0.00  0.00    -0.255 NA
ATOM     13  C   UNL A   1      -0.839   5.417   5.370  0.00  0.00    +0.111 A 
ATOM     14  C   UNL A   1      -2.158   5.683   5.713  0.00  0.00    +0.022 A 
ATOM     15  C   UNL A   1      -3.123   4.729   5.414  0.00  0.00    +0.041 A 
ATOM     16  C   UNL A   1      -2.731   3.553   4.788  0.00  0.00    +0.146 A 
ATOM     17  F   UNL A   1      -3.652   2.627   4.489  0.00  0.00    -0.204 F 
ENDBRANCH  10  11
ENDBRANCH   8  10
ENDBRANCH   1   7
BRANCH   4  18
ATOM     18  C   UNL A   1       5.639   2.243   2.824  0.00  0.00    +0.111 C 
BRANCH  18  19
ATOM     19  C   UNL A   1       5.810   2.341   4.343  0.00  0.00    +0.090 C 
BRANCH  19  20
ATOM     20  N   UNL A   1       7.006   3.107   4.738  0.00  0.00    -0.315 NA
ATOM     21  H   UNL A   1       6.938   4.056   4.366  0.00  0.00    +0.122 HD
BRANCH  20  22
ATOM     22  C   UNL A   1       7.090   3.177   6.209  0.00  0.00    +0.088 C 
BRANCH  22  23
ATOM     23  C   UNL A   1       8.318   3.970   6.672  0.00  0.00    +0.089 C 
BRANCH  23  24
ATOM     24  C   UNL A   1       8.391   4.037   8.162  0.00  0.00    +0.109 A 
ATOM     25  N   UNL A   1       7.856   4.963   8.932  0.00  0.00    -0.233 NA
ATOM     26  C   UNL A   1       8.184   4.611  10.220  0.00  0.00    +0.089 A 
ATOM     27  C   UNL A   1       7.878   5.249  11.431  0.00  0.00    +0.030 A 
ATOM     28  C   UNL A   1       8.331   4.673  12.626  0.00  0.00    +0.002 A 
ATOM     29  C   UNL A   1       9.069   3.488  12.614  0.00  0.00    +0.002 A 
ATOM     30  C   UNL A   1       9.389   2.840  11.414  0.00  0.00    +0.028 A 
ATOM     31  C   UNL A   1       8.929   3.438  10.238  0.00  0.00    +0.066 A 
ATOM     32  N   UNL A   1       9.059   3.100   8.915  0.00  0.00    -0.342 N 
ATOM     33  H   UNL A   1       9.560   2.301   8.555  0.00  0.00    +0.167 HD
ENDBRANCH  23  24
ENDBRANCH  22  23
ENDBRANCH  20  22
ENDBRANCH  19  20
ENDBRANCH  18  19
ENDBRANCH   4  18
TORSDOF 9
