@<TRIPOS>MOLECULE
*****
 51 54 0 0 0
SMALL
GASTEIGER

@<TRIPOS>ATOM
      1 O           0.1988   -0.0584    2.5561 O.2     1  UNL1       -0.2668
      2 C           0.9333    0.8835    2.8412 C.2     1  UNL1        0.2813
      3 N           0.4357    1.9971    3.4751 N.am    1  UNL1       -0.3031
      4 C          -0.9829    2.0793    3.7767 C.3     1  UNL1        0.0571
      5 C          -1.3885    3.3552    4.4713 C.ar    1  UNL1        0.0933
      6 N          -0.4287    4.2821    4.7556 N.ar    1  UNL1       -0.2554
      7 C          -0.8392    5.4166    5.3704 C.ar    1  UNL1        0.0281
      8 C          -2.1576    5.6833    5.7135 C.ar    1  UNL1       -0.0409
      9 C          -3.1230    4.7285    5.4138 C.ar    1  UNL1       -0.0232
     10 C          -2.7314    3.5529    4.7876 C.ar    1  UNL1        0.1461
     11 F          -3.6524    2.6266    4.4885 F       1  UNL1       -0.2036
     12 C           2.3422    0.8793    2.5281 C.ar    1  UNL1        0.2093
     13 C           3.0791   -0.0546    1.8344 C.ar    1  UNL1        0.0786
     14 N           4.3993    0.3006    1.8026 N.ar    1  UNL1       -0.2209
     15 C           4.4375    1.4312    2.4780 C.ar    1  UNL1        0.1976
     16 C           5.6390    2.2429    2.8238 C.3     1  UNL1        0.0365
     17 C           5.8102    2.3415    4.3431 C.3     1  UNL1        0.0043
     18 N           7.0061    3.1067    4.7379 N.3     1  UNL1       -0.3151
     19 C           7.0895    3.1773    6.2088 C.3     1  UNL1        0.0027
     20 C           8.3184    3.9704    6.6717 C.3     1  UNL1        0.0180
     21 C           8.3911    4.0375    8.1615 C.ar    1  UNL1        0.1094
     22 N           7.8558    4.9627    8.9319 N.ar    1  UNL1       -0.2325
     23 C           8.1838    4.6109   10.2201 C.ar    1  UNL1        0.0891
     24 C           7.8785    5.2487   11.4306 C.ar    1  UNL1       -0.0342
     25 C           8.3305    4.6733   12.6256 C.ar    1  UNL1       -0.0596
     26 C           9.0695    3.4879   12.6136 C.ar    1  UNL1       -0.0597
     27 C           9.3893    2.8403   11.4139 C.ar    1  UNL1       -0.0363
     28 C           8.9289    3.4382   10.2377 C.ar    1  UNL1        0.0662
     29 N           9.0585    3.1001    8.9151 N.ar    1  UNL1       -0.3418
     30 O           3.2117    1.8650    2.9354 O.2     1  UNL1       -0.4351
     31 H           1.0103    2.8158    3.6410 H       1  UNL1        0.1495
     32 H          -1.2468    1.2179    4.4021 H       1  UNL1        0.0528
     33 H          -1.5259    1.9949    2.8281 H       1  UNL1        0.0528
     34 H          -0.0527    6.1347    5.5872 H       1  UNL1        0.0829
     35 H          -2.4251    6.6146    6.2016 H       1  UNL1        0.0634
     36 H          -4.1675    4.8914    5.6592 H       1  UNL1        0.0647
     37 H           2.7144   -0.9634    1.3743 H       1  UNL1        0.0870
     38 H           5.5547    3.2374    2.3718 H       1  UNL1        0.0372
     39 H           6.5260    1.7657    2.3843 H       1  UNL1        0.0372
     40 H           5.8794    1.3278    4.7582 H       1  UNL1        0.0429
     41 H           4.9190    2.8152    4.7728 H       1  UNL1        0.0429
     42 H           6.9381    4.0558    4.3658 H       1  UNL1        0.1220
     43 H           7.1455    2.1603    6.6171 H       1  UNL1        0.0428
     44 H           6.1815    3.6444    6.6107 H       1  UNL1        0.0428
     45 H           8.2733    4.9918    6.2742 H       1  UNL1        0.0356
     46 H           9.2326    3.5135    6.2744 H       1  UNL1        0.0356
     47 H           7.3047    6.1685   11.4314 H       1  UNL1        0.0639
     48 H           8.1003    5.1573   13.5719 H       1  UNL1        0.0618
     49 H           9.4046    3.0590   13.5562 H       1  UNL1        0.0618
     50 H           9.9655    1.9224   11.4061 H       1  UNL1        0.0639
     51 H           9.5599    2.3013    8.5550 H       1  UNL1        0.1671
@<TRIPOS>BOND
     1     1     2    2
     2     2     3   am
     3     3     4    1
     4     4     5    1
     5     5     6   ar
     6     6     7   ar
     7     7     8   ar
     8     8     9   ar
     9     9    10   ar
    10     5    10   ar
    11    10    11    1
    12     2    12    1
    13    12    13   ar
    14    13    14   ar
    15    14    15   ar
    16    15    16    1
    17    16    17    1
    18    17    18    1
    19    18    19    1
    20    19    20    1
    21    20    21    1
    22    21    22   ar
    23    22    23   ar
    24    23    24   ar
    25    24    25   ar
    26    25    26   ar
    27    26    27   ar
    28    27    28   ar
    29    23    28   ar
    30    28    29   ar
    31    21    29   ar
    32    15    30   ar
    33    12    30   ar
    34     3    31    1
    35     4    32    1
    36     4    33    1
    37     7    34    1
    38     8    35    1
    39     9    36    1
    40    13    37    1
    41    16    38    1
    42    16    39    1
    43    17    40    1
    44    17    41    1
    45    18    42    1
    46    19    43    1
    47    19    44    1
    48    20    45    1
    49    20    46    1
    50    24    47    1
    51    25    48    1
    52    26    49    1
    53    27    50    1
    54    29    51    1
